Circuit: * C:\users\mateod\My Documents\Labs_Sintesis_Redes_Activas\Lab1_OA_Ideal\Circuito1 - AmpDif\Diff_Amp.asc

WARNING: Less than two connections to node V2.  This node is used by V2.
V2: Missing value, assumed 0V @ DC
Direct Newton iteration for .op point succeeded.

Date: Tue Nov 11 20:13:27 2025
Total elapsed time: 0.376 seconds.

tnom = 27
temp = 27
method = modified trap
totiter = 2169
traniter = 2152
tranpoints = 1077
accept = 1068
rejected = 9
matrix size = 72
fillins = 67
solver = Normal
Matrix Compiler1: 6.61 KB object code size  4.0/2.3/[1.1]
Matrix Compiler2: 7.11 KB object code size  2.0/3.1/[1.5]

