Circuit: * C:\users\mateod\My Documents\Labs_Sintesis_Redes_Activas\Lab1_OA_Ideal\Circuito2 - Fuente_I_Control_v\Fuente_I_V.asc

.step rl=1000
.step rl=2000
.step rl=5000
.step rl=10000

Date: Thu Nov 13 21:09:26 2025
Total elapsed time: 0.571 seconds.

tnom = 27
temp = 27
method = trap
totiter = 4825
traniter = 0
tranpoints = 0
accept = 0
rejected = 0
matrix size = 31
fillins = 28
solver = Normal
Matrix Compiler1: 3.90 KB object code size  1.0/0.6/[0.3]
Matrix Compiler2: 3.88 KB object code size  0.6/0.7/[0.3]

