Circuit: * C:\users\mateod\My Documents\Labs_Sintesis_Redes_Activas\Lab1_OA_Ideal\Circuito3 - Rectificador_Precis\Rect_Precis.asc

Direct Newton iteration failed to find .op point.  (Use ".option noopiter" to skip.)
Starting Gmin stepping
Gmin = 10
Gmin = 1.07374
Gmin = 0.115292
Gmin = 0.0123794
Gmin = 0.00132923
Gmin = 0.000142725
Gmin = 1.5325e-005
Gmin = 1.6455e-006
vernier = 0.5
vernier = 0.25
vernier = 0.125
vernier = 0.0625
Gmin = 6.63629e-007
vernier = 0.0833333
Gmin = 5.51141e-007
vernier = 0.111111
vernier = 0.148148
vernier = 0.074074
vernier = 0.037037
vernier = 0.0185185
Gmin = 4.67593e-007
vernier = 0.00925925
vernier = 0.00462963
vernier = 0.00231481
vernier = 0.00115741
vernier = 0.000578703
vernier = 0.000434027
Gmin = 0
Gmin stepping failed

Starting source stepping with srcstepmethod=0
Source Step = 3.0303%
Source Step = 33.3333%
Source Step = 63.6364%
Source Step = 93.9394%
Source stepping succeeded in finding the operating point.


Date: Fri Nov 14 11:34:00 2025
Total elapsed time: 0.964 seconds.

tnom = 27
temp = 27
method = modified trap
totiter = 8726
traniter = 6441
tranpoints = 2087
accept = 1738
rejected = 349
matrix size = 59
fillins = 81
solver = Normal
Thread vector: 21.1/13.9[2] 13.4/7.2[2] 3.8/4.9[1] 0.6/2.8[1]  2592/500
Matrix Compiler1: 9.15 KB object code size  4.0/2.3/[0.9]
Matrix Compiler2: 8.02 KB object code size  2.8/3.3/[0.9]

