Circuit: * C:\users\mateod\My Documents\Labs_Sintesis_Redes_Activas\Lab1_OA_Ideal\Circuito5 - Adicional\Relax_Osc_ad823.asc

Direct Newton iteration for .op point succeeded.

Date: Sat Nov 15 16:56:23 2025
Total elapsed time: 4.081 seconds.

tnom = 27
temp = 27
method = modified trap
totiter = 574589
traniter = 574585
tranpoints = 189462
accept = 137776
rejected = 51686
matrix size = 10
fillins = 6
solver = Normal
Matrix Compiler1: 738 bytes object code size  0.4/0.3/[0.3]
Matrix Compiler2: off  [0.3]/0.4/0.3

