Circuit: * C:\users\mateod\My Documents\Labs_Sintesis_Redes_Activas\Lab1_OA_Ideal\Circuito4 - Comparador_Hist\Comp_Hist.asc

WARNING: Less than two connections to node VCC.  This node is used by V4.
WARNING: Less than two connections to node VSS.  This node is used by V5.
Direct Newton iteration for .op point succeeded.

Date: Fri Nov 14 17:21:23 2025
Total elapsed time: 0.207 seconds.

tnom = 27
temp = 27
method = modified trap
totiter = 5322
traniter = 5293
tranpoints = 1512
accept = 1323
rejected = 189
matrix size = 43
fillins = 44
solver = Normal
Matrix Compiler1: 3.84 KB object code size  1.1/0.8/[0.3]
Matrix Compiler2: 3.93 KB object code size  0.6/0.7/[0.6]

